<?xml version="1.0" encoding="UTF-8"?>

<!-- generated on 2025-12-28 14:02:34 by Eclipse SUMO netconvert Version 1.24.0
<netconvertConfiguration xmlns:xsi="http://www.w3.org/2001/XMLSchema-instance" xsi:noNamespaceSchemaLocation="http://sumo.dlr.de/xsd/netconvertConfiguration.xsd">

    <input>
        <osm-files value="..\data\bari.osm"/>
    </input>

    <output>
        <output-file value="..\data\bari.net.xml"/>
    </output>

    <projection>
        <proj.utm value="true"/>
    </projection>

    <processing>
        <roundabouts.guess value="true"/>
    </processing>

    <tls_building>
        <tls.guess value="true"/>
    </tls_building>

    <edge_removal>
        <keep-edges.by-vclass value="passenger,delivery"/>
        <remove-edges.isolated value="true"/>
    </edge_removal>

    <junctions>
        <junctions.join value="true"/>
    </junctions>

</netconvertConfiguration>
-->

<net version="1.20" junctionCornerDetail="5" limitTurnSpeed="5.50" xmlns:xsi="http://www.w3.org/2001/XMLSchema-instance" xsi:noNamespaceSchemaLocation="http://sumo.dlr.de/xsd/net_file.xsd">

    <location netOffset="-655487.42,-4552935.82" convBoundary="0.00,0.00,3068.07,2142.93" origBoundary="16.852136,41.112486,16.894928,41.133727" projParameter="+proj=utm +zone=33 +ellps=WGS84 +datum=WGS84 +units=m +no_defs"/>

    <type id="highway.residential" priority="3" numLanes="1" speed="13.89" disallow="tram rail_urban rail rail_electric rail_fast ship container cable_car subway aircraft wheelchair scooter drone" oneway="0"/>
    <type id="highway.secondary" priority="11" numLanes="1" speed="27.78" disallow="tram rail_urban rail rail_electric rail_fast ship container cable_car subway aircraft wheelchair scooter drone" oneway="0"/>
    <type id="highway.secondary_link" priority="6" numLanes="1" speed="22.22" disallow="tram rail_urban rail rail_electric rail_fast ship container cable_car subway aircraft wheelchair scooter drone" oneway="0"/>
    <type id="highway.service" priority="1" numLanes="1" speed="5.56" allow="pedestrian delivery bicycle" oneway="0"/>
    <type id="highway.tertiary" priority="10" numLanes="1" speed="22.22" disallow="tram rail_urban rail rail_electric rail_fast ship container cable_car subway aircraft wheelchair scooter drone" oneway="0"/>
    <type id="highway.tertiary_link" priority="5" numLanes="1" speed="22.22" disallow="tram rail_urban rail rail_electric rail_fast ship container cable_car subway aircraft wheelchair scooter drone" oneway="0"/>
    <type id="highway.unclassified" priority="4" numLanes="1" speed="13.89" disallow="tram rail_urban rail rail_electric rail_fast ship container cable_car subway aircraft wheelchair scooter drone" oneway="0"/>

    <edge id=":10188734913_0" function="internal">
        <lane id=":10188734913_0_0" index="0" disallow="tram rail_urban rail rail_electric rail_fast ship container cable_car subway aircraft wheelchair scooter drone" speed="27.78" length="0.34" shape="2605.80,984.63 2605.46,984.77"/>
        <lane id=":10188734913_0_1" index="1" disallow="tram rail_urban rail rail_electric rail_fast ship container cable_car subway aircraft wheelchair scooter drone" speed="27.78" length="0.34" shape="2604.57,981.68 2604.28,981.79"/>
    </edge>
    <edge id=":10188734913_2" function="internal">
        <lane id=":10188734913_2_0" index="0" disallow="tram rail_urban rail rail_electric rail_fast ship container cable_car subway aircraft wheelchair scooter drone" speed="27.78" length="0.23" shape="2601.92,975.84 2602.11,975.77"/>
        <lane id=":10188734913_2_1" index="1" disallow="tram rail_urban rail rail_electric rail_fast ship container cable_car subway aircraft wheelchair scooter drone" speed="27.78" length="0.23" shape="2603.10,978.82 2603.34,978.72"/>
    </edge>
    <edge id=":1081458551_0" function="internal">
        <lane id=":1081458551_0_0" index="0" disallow="tram rail_urban rail rail_electric rail_fast ship container cable_car subway aircraft wheelchair scooter drone" speed="13.89" length="9.40" shape="1586.42,644.21 1585.48,653.56"/>
    </edge>
    <edge id=":1081458551_1" function="internal">
        <lane id=":1081458551_1_0" index="0" allow="pedestrian delivery bicycle" speed="6.07" length="7.77" shape="1586.42,644.21 1585.95,646.93 1585.17,648.83 1584.08,649.91 1582.68,650.15"/>
    </edge>
    <edge id=":1081458551_2" function="internal">
        <lane id=":1081458551_2_0" index="0" allow="pedestrian delivery bicycle" speed="6.10" length="7.77" shape="1583.02,646.97 1584.33,647.51 1585.18,648.78 1585.56,650.80 1585.48,653.56"/>
    </edge>
    <edge id=":1081458551_3" function="internal">
        <lane id=":1081458551_3_0" index="0" allow="pedestrian delivery bicycle" speed="3.65" length="4.67" shape="1583.02,646.97 1584.12,647.89 1584.44,648.73 1583.95,649.48 1582.68,650.15"/>
    </edge>
    <edge id=":1081458553_0" function="internal">
        <lane id=":1081458553_0_0" index="0" allow="pedestrian delivery bicycle" speed="3.65" length="4.67" shape="1544.23,648.25 1542.94,647.60 1542.44,646.86 1542.74,646.01 1543.83,645.07"/>
    </edge>
    <edge id=":10880922500_0" function="internal">
        <lane id=":10880922500_0_0" index="0" allow="pedestrian delivery bicycle" speed="5.56" length="5.50" shape="1092.60,578.47 1091.01,578.34 1089.91,578.61 1088.80,578.94 1087.19,578.99"/>
    </edge>
    <edge id=":10880922500_1" function="internal">
        <lane id=":10880922500_1_0" index="0" allow="pedestrian delivery bicycle" speed="4.66" length="6.02" shape="1092.60,578.47 1090.87,577.84 1090.10,576.96 1090.31,575.80 1091.48,574.39"/>
    </edge>
    <edge id=":10880922500_2" function="internal">
        <lane id=":10880922500_2_0" index="0" allow="pedestrian delivery bicycle" speed="5.56" length="4.36" shape="1087.51,575.81 1088.59,575.80 1089.61,575.57 1090.57,575.09 1091.48,574.39"/>
    </edge>
    <edge id=":10880922500_3" function="internal">
        <lane id=":10880922500_3_0" index="0" allow="pedestrian delivery bicycle" speed="3.65" length="4.67" shape="1087.51,575.81 1088.62,576.73 1088.94,577.56 1088.46,578.32 1087.19,578.99"/>
    </edge>
    <edge id=":10880944605_0" function="internal">
        <lane id=":10880944605_0_0" index="0" allow="pedestrian delivery bicycle" speed="5.56" length="6.31" shape="1216.47,610.14 1214.66,609.80 1213.49,609.20 1212.32,608.60 1210.51,608.28"/>
    </edge>
    <edge id=":10880944605_1" function="internal">
        <lane id=":10880944605_1_0" index="0" allow="pedestrian delivery bicycle" speed="3.65" length="4.67" shape="1216.47,610.14 1215.31,609.28 1214.94,608.46 1215.38,607.68 1216.62,606.94"/>
    </edge>
    <edge id=":10880944605_2" function="internal">
        <lane id=":10880944605_2_0" index="0" allow="pedestrian delivery bicycle" speed="5.16" length="4.88" shape="1213.52,603.86 1213.77,605.15 1214.37,606.10 1215.32,606.70 1216.62,606.94"/>
    </edge>
    <edge id=":10880944605_3" function="internal">
        <lane id=":10880944605_3_0" index="0" allow="pedestrian delivery bicycle" speed="5.35" length="6.17" shape="1213.52,603.86 1213.42,605.84 1212.89,607.24 1211.91,608.05 1210.51,608.28"/>
    </edge>
    <edge id=":10880944627_0" function="internal">
        <lane id=":10880944627_0_0" index="0" allow="pedestrian delivery bicycle" speed="3.65" length="4.67" shape="1407.04,620.17 1407.97,619.07 1408.81,618.76 1409.56,619.25 1410.21,620.54"/>
    </edge>
    <edge id=":10975932015_0" function="internal">
        <lane id=":10975932015_0_0" index="0" disallow="tram rail_urban rail rail_electric rail_fast ship container cable_car subway aircraft wheelchair scooter drone" speed="13.89" length="0.36" shape="2443.51,1032.92 2443.33,1032.61"/>
    </edge>
    <edge id=":10975932018_0" function="internal">
        <lane id=":10975932018_0_0" index="0" disallow="tram rail_urban rail rail_electric rail_fast ship container cable_car subway aircraft wheelchair scooter drone" speed="13.89" length="0.30" shape="2583.48,978.00 2583.36,977.73"/>
    </edge>
    <edge id=":10975932020_0" function="internal">
        <lane id=":10975932020_0_0" index="0" disallow="tram rail_urban rail rail_electric rail_fast ship container cable_car subway aircraft wheelchair scooter drone" speed="13.89" length="1.17" shape="2515.40,1004.85 2516.00,1005.86"/>
    </edge>
    <edge id=":11001941870_0" function="internal">
        <lane id=":11001941870_0_0" index="0" allow="pedestrian delivery bicycle" speed="5.56" length="5.18" shape="1007.01,481.85 1008.43,482.42 1009.45,482.67 1010.50,482.78 1012.03,482.91"/>
    </edge>
    <edge id=":11001941870_1" function="internal">
        <lane id=":11001941870_1_0" index="0" allow="pedestrian delivery bicycle" speed="5.56" length="6.25" shape="1007.01,481.85 1007.79,482.75 1008.63,484.42 1009.38,486.18 1009.84,487.38"/>
    </edge>
    <edge id=":11001941877_0" function="internal">
        <lane id=":11001941877_0_0" index="0" allow="pedestrian delivery bicycle" speed="16.67" length="2.99" shape="1231.93,471.84 1229.47,470.14"/>
    </edge>
    <edge id=":11001941877_1" function="internal">
        <lane id=":11001941877_1_0" index="0" disallow="tram rail_urban rail rail_electric rail_fast ship container cable_car subway aircraft wheelchair scooter drone" speed="27.78" length="2.43" shape="1231.93,471.84 1229.51,471.59"/>
    </edge>
    <edge id=":11001941877_2" function="internal">
        <lane id=":11001941877_2_0" index="0" disallow="tram rail_urban rail rail_electric rail_fast ship container cable_car subway aircraft wheelchair scooter drone" speed="27.78" length="2.88" shape="1229.42,468.36 1232.29,468.66"/>
    </edge>
    <edge id=":11001941877_3" function="internal">
        <lane id=":11001941877_3_0" index="0" allow="pedestrian delivery bicycle" speed="5.77" length="2.04" shape="1229.42,468.36 1231.45,468.60"/>
    </edge>
    <edge id=":11001941877_4" function="internal">
        <lane id=":11001941877_4_0" index="0" allow="pedestrian delivery bicycle" speed="5.77" length="12.43" shape="1231.45,468.60 1234.80,468.98 1236.61,469.48 1234.83,469.87 1229.47,470.14"/>
    </edge>
    <edge id=":11001941878_0" function="internal">
        <lane id=":11001941878_0_0" index="0" allow="pedestrian delivery bicycle" speed="5.56" length="6.79" shape="1140.48,481.49 1138.56,482.03 1137.34,482.69 1136.12,483.39 1134.23,484.05"/>
    </edge>
    <edge id=":11001941878_1" function="internal">
        <lane id=":11001941878_1_0" index="0" allow="pedestrian delivery bicycle" speed="5.22" length="10.34" shape="1140.48,481.49 1136.85,481.93 1135.42,481.49 1136.18,480.19 1139.14,478.01"/>
    </edge>
    <edge id=":11001941878_2" function="internal">
        <lane id=":11001941878_2_0" index="0" allow="pedestrian delivery bicycle" speed="5.56" length="6.46" shape="1133.45,480.95 1135.27,480.41 1136.45,479.84 1137.55,479.09 1139.14,478.01"/>
    </edge>
    <edge id=":11001941878_3" function="internal">
        <lane id=":11001941878_3_0" index="0" allow="pedestrian delivery bicycle" speed="3.65" length="4.67" shape="1133.45,480.95 1134.81,481.43 1135.39,482.11 1135.20,482.99 1134.23,484.05"/>
    </edge>
    <edge id=":11001941887_0" function="internal">
        <lane id=":11001941887_0_0" index="0" allow="pedestrian delivery bicycle" speed="5.56" length="0.10" shape="1145.62,469.02 1145.62,469.02"/>
    </edge>
    <edge id=":11003032453_0" function="internal">
        <lane id=":11003032453_0_0" index="0" disallow="tram rail_urban rail rail_electric rail_fast ship container cable_car subway aircraft wheelchair scooter drone" speed="13.10" length="7.49" shape="1399.45,469.89 1400.06,472.01 1400.67,473.42 1401.58,474.65 1403.10,476.26"/>
    </edge>
    <edge id=":11003032453_1" function="internal">
        <lane id=":11003032453_1_0" index="0" disallow="tram rail_urban rail rail_electric rail_fast ship container cable_car subway aircraft wheelchair scooter drone" speed="9.24" length="5.84" shape="1398.07,473.67 1399.76,473.96 1400.90,474.36 1401.88,475.06 1403.10,476.26"/>
    </edge>
    <edge id=":11003032457_0" function="internal">
        <lane id=":11003032457_0_0" index="0" disallow="tram rail_urban rail rail_electric rail_fast ship container cable_car subway aircraft wheelchair scooter drone" speed="27.78" length="9.27" shape="1396.12,487.42 1387.38,484.32"/>
    </edge>
    <edge id=":11003032457_1" function="internal">
        <lane id=":11003032457_1_0" index="0" disallow="tram rail_urban rail rail_electric rail_fast ship container cable_car subway aircraft wheelchair scooter drone" speed="6.75" length="7.97" shape="1396.12,487.42 1393.61,486.42 1391.85,485.27 1390.83,483.96 1390.55,482.48"/>
    </edge>
    <edge id=":11003032460_0" function="internal">
        <lane id=":11003032460_0_0" index="0" disallow="tram rail_urban rail rail_electric rail_fast ship container cable_car subway aircraft wheelchair scooter drone" speed="14.75" length="8.53" shape="1403.71,477.15 1404.73,479.48 1405.49,481.08 1406.54,482.45 1408.44,484.07"/>
    </edge>
    <edge id=":11003032460_1" function="internal">
        <lane id=":11003032460_1_0" index="0" disallow="tram rail_urban rail rail_electric rail_fast ship container cable_car subway aircraft wheelchair scooter drone" speed="7.32" length="6.53" shape="1403.71,477.15 1404.42,479.02 1404.72,480.69 1404.61,482.15 1404.10,483.42"/>
    </edge>
    <edge id=":11003032464_0" function="internal">
        <lane id=":11003032464_0_0" index="0" disallow="tram rail_urban rail rail_electric rail_fast ship container cable_car subway aircraft wheelchair scooter drone" speed="27.78" length="8.04" shape="1407.33,485.73 1404.95,485.87 1403.33,486.09 1401.75,486.52 1399.51,487.33"/>
    </edge>
    <edge id=":11003032464_1" function="internal">
        <lane id=":11003032464_1_0" index="0" disallow="tram rail_urban rail rail_electric rail_fast ship container cable_car subway aircraft wheelchair scooter drone" speed="9.38" length="6.03" shape="1403.99,483.59 1403.03,485.08 1402.20,486.01 1401.15,486.67 1399.51,487.33"/>
    </edge>
    <edge id=":11003032466_0" function="internal">
        <lane id=":11003032466_0_0" index="0" disallow="tram rail_urban rail rail_electric rail_fast ship container cable_car subway aircraft wheelchair scooter drone" speed="9.46" length="7.35" shape="1386.94,482.83 1388.80,481.81 1389.88,480.77 1390.62,479.41 1391.45,477.40"/>
    </edge>
    <edge id=":11003032466_1" function="internal">
        <lane id=":11003032466_1_0" index="0" disallow="tram rail_urban rail rail_electric rail_fast ship container cable_car subway aircraft wheelchair scooter drone" speed="19.48" length="5.01" shape="1390.57,482.28 1390.63,480.80 1390.71,479.77 1390.93,478.78 1391.45,477.40"/>
    </edge>
    <edge id=":11003032468_0" function="internal">
        <lane id=":11003032468_0_0" index="0" disallow="tram rail_urban rail rail_electric rail_fast ship container cable_car subway aircraft wheelchair scooter drone" speed="13.44" length="8.28" shape="1392.04,476.47 1393.73,474.68 1394.88,473.39 1395.69,471.92 1396.33,469.60"/>
    </edge>
    <edge id=":11003032468_1" function="internal">
        <lane id=":11003032468_1_0" index="0" disallow="tram rail_urban rail rail_electric rail_fast ship container cable_car subway aircraft wheelchair scooter drone" speed="7.44" length="6.75" shape="1392.04,476.47 1393.49,475.07 1394.94,474.13 1396.40,473.65 1397.87,473.64"/>
    </edge>
    <edge id=":11003032474_0" function="internal">
        <lane id=":11003032474_0_0" index="0" disallow="tram rail_urban rail rail_electric rail_fast ship container cable_car subway aircraft wheelchair scooter drone" speed="27.78" length="0.16" shape="1412.15,487.95 1412.31,487.99"/>
    </edge>
    <edge id=":11003032474_1" function="internal">
        <lane id=":11003032474_1_0" index="0" disallow="tram rail_urban rail rail_electric rail_fast ship container cable_car subway aircraft wheelchair scooter drone" speed="3.65" length="2.34" shape="1412.15,487.95 1411.27,486.80 1411.15,485.92"/>
    </edge>
    <edge id=":11003032474_4" function="internal">
        <lane id=":11003032474_4_0" index="0" disallow="tram rail_urban rail rail_electric rail_fast ship container cable_car subway aircraft wheelchair scooter drone" speed="3.65" length="2.34" shape="1411.15,485.92 1411.78,485.29 1413.18,484.91"/>
    </edge>
    <edge id=":11003032474_2" function="internal">
        <lane id=":11003032474_2_0" index="0" disallow="tram rail_urban rail rail_electric rail_fast ship container cable_car subway aircraft wheelchair scooter drone" speed="27.78" length="0.24" shape="1413.40,485.01 1413.18,484.91"/>
    </edge>
    <edge id=":11003032474_3" function="internal">
        <lane id=":11003032474_3_0" index="0" disallow="tram rail_urban rail rail_electric rail_fast ship container cable_car subway aircraft wheelchair scooter drone" speed="3.65" length="3.17" shape="1413.40,485.01 1412.31,487.99"/>
    </edge>
    <edge id=":11003032482_0" function="internal">
        <lane id=":11003032482_0_0" index="0" disallow="tram rail_urban rail rail_electric rail_fast ship container cable_car subway aircraft wheelchair scooter drone" speed="18.06" length="0.58" shape="1420.96,490.33 1420.79,490.31 1420.68,490.29 1420.56,490.27 1420.39,490.23"/>
    </edge>
    <edge id=":11003032482_1" function="internal">
        <lane id=":11003032482_1_0" index="0" disallow="tram rail_urban rail rail_electric rail_fast ship container cable_car subway aircraft wheelchair scooter drone" speed="18.06" length="0.19" shape="1421.11,487.12 1421.17,487.13 1421.21,487.14 1421.25,487.14 1421.30,487.15"/>
    </edge>
    <edge id=":11003032487_0" function="internal">
        <lane id=":11003032487_0_0" index="0" disallow="tram rail_urban rail rail_electric rail_fast ship container cable_car subway aircraft wheelchair scooter drone" speed="3.70" length="4.51" shape="1395.72,457.62 1396.43,456.43 1397.18,456.00 1397.97,456.34 1398.80,457.46"/>
    </edge>
    <edge id=":11003032497_0" function="internal">
        <lane id=":11003032497_0_0" index="0" disallow="tram rail_urban rail rail_electric rail_fast ship container cable_car subway aircraft wheelchair scooter drone" speed="27.78" length="0.18" shape="1382.99,485.75 1383.17,485.74"/>
    </edge>
    <edge id=":11003032497_1" function="internal">
        <lane id=":11003032497_1_0" index="0" disallow="tram rail_urban rail rail_electric rail_fast ship container cable_car subway aircraft wheelchair scooter drone" speed="3.64" length="3.17" shape="1382.99,485.75 1382.54,482.61"/>
    </edge>
    <edge id=":11003032497_2" function="internal">
        <lane id=":11003032497_2_0" index="0" disallow="tram rail_urban rail rail_electric rail_fast ship container cable_car subway aircraft wheelchair scooter drone" speed="27.78" length="0.24" shape="1382.78,482.56 1382.54,482.61"/>
    </edge>
    <edge id=":11003032497_3" function="internal">
        <lane id=":11003032497_3_0" index="0" disallow="tram rail_urban rail rail_electric rail_fast ship container cable_car subway aircraft wheelchair scooter drone" speed="3.65" length="2.34" shape="1382.78,482.56 1384.06,483.21 1384.56,483.95"/>
    </edge>
    <edge id=":11003032497_4" function="internal">
        <lane id=":11003032497_4_0" index="0" disallow="tram rail_urban rail rail_electric rail_fast ship container cable_car subway aircraft wheelchair scooter drone" speed="3.65" length="2.34" shape="1384.56,483.95 1384.26,484.80 1383.17,485.74"/>
    </edge>
    <edge id=":11090960514_0" function="internal">
        <lane id=":11090960514_0_0" index="0" disallow="tram rail_urban rail rail_electric rail_fast ship container cable_car subway aircraft wheelchair scooter drone" speed="13.89" length="0.30" shape="2061.57,1001.79 2061.30,1001.92"/>
    </edge>
    <edge id=":11090985529_0" function="internal">
        <lane id=":11090985529_0_0" index="0" disallow="tram rail_urban rail rail_electric rail_fast ship container cable_car subway aircraft wheelchair scooter drone" speed="13.89" length="0.27" shape="1987.73,1205.47 1987.76,1205.21"/>
    </edge>
    <edge id=":11097465178_0" function="internal">
        <lane id=":11097465178_0_0" index="0" disallow="tram rail_urban rail rail_electric rail_fast ship container cable_car subway aircraft wheelchair scooter drone" speed="8.33" length="0.29" shape="1495.32,730.88 1495.03,730.86"/>
    </edge>
    <edge id=":11097465179_0" function="internal">
        <lane id=":11097465179_0_0" index="0" disallow="tram rail_urban rail rail_electric rail_fast ship container cable_car subway aircraft wheelchair scooter drone" speed="8.33" length="0.30" shape="1506.29,731.77 1505.99,731.75"/>
    </edge>
    <edge id=":11097465180_0" function="internal">
        <lane id=":11097465180_0_0" index="0" disallow="tram rail_urban rail rail_electric rail_fast ship container cable_car subway aircraft wheelchair scooter drone" speed="8.33" length="0.10" shape="1562.52,736.58 1562.52,736.58"/>
    </edge>
    <edge id=":11097507945_0" function="internal">
        <lane id=":11097507945_0_0" index="0" disallow="tram rail_urban rail rail_electric rail_fast ship container cable_car subway aircraft wheelchair scooter drone" speed="13.89" length="0.30" shape="1485.53,663.12 1485.54,662.83"/>
    </edge>
    <edge id=":1113880251_0" function="internal">
        <lane id=":1113880251_0_0" index="0" allow="pedestrian delivery bicycle" speed="5.03" length="5.01" shape="2089.46,422.96 2088.23,422.37 2087.10,422.32 2086.08,422.81 2085.17,423.83"/>
    </edge>
    <edge id=":1113880251_1" function="internal">
        <lane id=":1113880251_1_0" index="0" allow="pedestrian delivery bicycle" speed="3.65" length="4.67" shape="2089.46,422.96 2088.91,421.63 2089.02,420.74 2089.79,420.29 2091.24,420.29"/>
    </edge>
    <edge id=":1113880251_2" function="internal">
        <lane id=":1113880251_2_0" index="0" allow="pedestrian delivery bicycle" speed="5.03" length="5.01" shape="2090.39,415.99 2089.79,417.23 2089.73,418.36 2090.21,419.38 2091.24,420.29"/>
    </edge>
    <edge id=":1113880251_3" function="internal">
        <lane id=":1113880251_3_0" index="0" disallow="tram rail_urban rail rail_electric rail_fast ship container cable_car subway aircraft wheelchair scooter drone" speed="13.89" length="9.42" shape="2090.39,415.99 2085.17,423.83"/>
    </edge>
    <edge id=":11291846093_0" function="internal">
        <lane id=":11291846093_0_0" index="0" disallow="tram rail_urban rail rail_electric rail_fast ship container cable_car subway aircraft wheelchair scooter drone" speed="8.33" length="0.10" shape="1576.94,1358.16 1576.94,1358.16"/>
    </edge>
    <edge id=":11291846096_0" function="internal">
        <lane id=":11291846096_0_0" index="0" disallow="tram rail_urban rail rail_electric rail_fast ship container cable_car subway aircraft wheelchair scooter drone" speed="13.89" length="0.30" shape="924.12,1223.65 923.82,1223.62"/>
    </edge>
    <edge id=":11291846098_0" function="internal">
        <lane id=":11291846098_0_0" index="0" disallow="tram rail_urban rail rail_electric rail_fast ship container cable_car subway aircraft wheelchair scooter drone" speed="13.89" length="0.30" shape="1201.06,1099.67 1200.76,1099.64"/>
    </edge>
    <edge id=":11291846099_0" function="internal">
        <lane id=":11291846099_0_0" index="0" disallow="tram rail_urban rail rail_electric rail_fast ship container cable_car subway aircraft wheelchair scooter drone" speed="13.89" length="0.10" shape="1256.10,1171.23 1256.10,1171.23"/>
    </edge>
    <edge id=":11291846104_0" function="internal">
        <lane id=":11291846104_0_0" index="0" disallow="tram rail_urban rail rail_electric rail_fast ship container cable_car subway aircraft wheelchair scooter drone" speed="13.89" length="0.30" shape="1577.72,731.19 1577.69,731.49"/>
    </edge>
    <edge id=":11303268427_0" function="internal">
        <lane id=":11303268427_0_0" index="0" disallow="tram rail_urban rail rail_electric rail_fast ship container cable_car subway aircraft wheelchair scooter drone" speed="13.41" length="7.03" shape="1715.37,1476.83 1713.62,1477.98 1712.45,1478.84 1711.51,1479.91 1710.45,1481.68"/>
    </edge>
    <edge id=":11303268427_1" function="internal">
        <lane id=":11303268427_1_0" index="0" disallow="tram rail_urban rail rail_electric rail_fast ship container cable_car subway aircraft wheelchair scooter drone" speed="27.78" length="7.95" shape="1715.37,1476.83 1713.28,1477.64 1711.56,1477.48 1709.83,1477.31 1707.74,1478.13"/>
    </edge>
    <edge id=":11303268427_2" function="internal">
        <lane id=":11303268427_2_0" index="0" disallow="tram rail_urban rail rail_electric rail_fast ship container cable_car subway aircraft wheelchair scooter drone" speed="3.65" length="1.44" shape="1713.57,1474.18 1712.13,1474.19"/>
    </edge>
    <edge id=":11303268427_7" function="internal">
        <lane id=":11303268427_7_0" index="0" disallow="tram rail_urban rail rail_electric rail_fast ship container cable_car subway aircraft wheelchair scooter drone" speed="3.65" length="3.23" shape="1712.13,1474.19 1711.35,1473.76 1711.23,1472.87 1711.77,1471.53"/>
    </edge>
    <edge id=":11303268427_3" function="internal">
        <lane id=":11303268427_3_0" index="0" disallow="tram rail_urban rail rail_electric rail_fast ship container cable_car subway aircraft wheelchair scooter drone" speed="27.78" length="7.49" shape="1705.95,1475.48 1707.48,1473.84 1707.96,1472.18 1708.45,1470.53 1709.98,1468.89"/>
        <lane id=":11303268427_3_1" index="1" disallow="tram rail_urban rail rail_electric rail_fast ship container cable_car subway aircraft wheelchair scooter drone" speed="27.78" length="7.49" shape="1705.95,1475.48 1711.77,1471.53"/>
    </edge>
    <edge id=":11303268427_5" function="internal">
        <lane id=":11303268427_5_0" index="0" disallow="tram rail_urban rail rail_electric rail_fast ship container cable_car subway aircraft wheelchair scooter drone" speed="6.66" length="8.82" shape="1705.95,1475.48 1710.84,1472.74 1713.23,1472.86 1713.19,1473.69"/>
    </edge>
    <edge id=":11303268427_6" function="internal">
        <lane id=":11303268427_6_0" index="0" disallow="tram rail_urban rail rail_electric rail_fast ship container cable_car subway aircraft wheelchair scooter drone" speed="3.65" length="1.44" shape="1705.95,1475.48 1707.39,1475.47"/>
    </edge>
    <edge id=":11303268427_8" function="internal">
        <lane id=":11303268427_8_0" index="0" disallow="tram rail_urban rail rail_electric rail_fast ship container cable_car subway aircraft wheelchair scooter drone" speed="6.66" length="8.57" shape="1713.19,1473.69 1713.10,1475.84 1710.45,1481.68"/>
    </edge>
    <edge id=":11303268427_9" function="internal">
        <lane id=":11303268427_9_0" index="0" disallow="tram rail_urban rail rail_electric rail_fast ship container cable_car subway aircraft wheelchair scooter drone" speed="3.65" length="3.23" shape="1707.39,1475.47 1708.17,1475.91 1708.29,1476.79 1707.74,1478.13"/>
    </edge>
    <edge id=":11310592526_0" function="internal">
        <lane id=":11310592526_0_0" index="0" disallow="tram rail_urban rail rail_electric rail_fast ship container cable_car subway aircraft wheelchair scooter drone" speed="13.89" length="0.10" shape="2043.24,27.83 2043.24,27.83"/>
    </edge>
    <edge id=":11310643488_0" function="internal">
        <lane id=":11310643488_0_0" index="0" allow="pedestrian delivery bicycle" speed="5.56" length="0.29" shape="1863.97,529.90 1863.83,530.16"/>
    </edge>
    <edge id=":11310643488_1" function="internal">
        <lane id=":11310643488_1_0" index="0" allow="pedestrian delivery bicycle" speed="5.56" length="0.31" shape="1861.00,528.67 1861.14,528.40"/>
    </edge>
    <edge id=":11310679475_0" function="internal">
        <lane id=":11310679475_0_0" index="0" disallow="tram rail_urban rail rail_electric rail_fast ship container cable_car subway aircraft wheelchair scooter drone" speed="27.78" length="0.30" shape="1772.24,511.20 1772.21,511.50"/>
    </edge>
    <edge id=":11310679476_0" function="internal">
        <lane id=":11310679476_0_0" index="0" disallow="tram rail_urban rail rail_electric rail_fast ship container cable_car subway aircraft wheelchair scooter drone" speed="27.78" length="0.28" shape="1771.61,516.97 1771.59,517.25"/>
    </edge>
    <edge id=":11310683629_0" function="internal">
        <lane id=":11310683629_0_0" index="0" disallow="tram rail_urban rail rail_electric rail_fast ship container cable_car subway aircraft wheelchair scooter drone" speed="27.78" length="0.10" shape="1772.78,506.43 1772.78,506.43"/>
    </edge>
    <edge id=":11310740842_0" function="internal">
        <lane id=":11310740842_0_0" index="0" disallow="tram rail_urban rail rail_electric rail_fast ship container cable_car subway aircraft wheelchair scooter drone" speed="13.89" length="0.10" shape="1593.73,508.87 1593.73,508.87"/>
    </edge>
    <edge id=":11310740842_1" function="internal">
        <lane id=":11310740842_1_0" index="0" disallow="tram rail_urban rail rail_electric rail_fast ship container cable_car subway aircraft wheelchair scooter drone" speed="13.89" length="0.10" shape="1594.08,505.69 1594.08,505.69"/>
    </edge>
    <edge id=":11310775786_0" function="internal">
        <lane id=":11310775786_0_0" index="0" disallow="tram rail_urban rail rail_electric rail_fast ship container cable_car subway aircraft wheelchair scooter drone" speed="8.33" length="6.18" shape="1532.87,502.34 1526.73,501.68"/>
    </edge>
    <edge id=":11310775786_1" function="internal">