<configuration>
    <input>
        <net-file value="bari.net.xml"/>
    </input>
    <time>
        <begin value="0"/>
        <end value="2000"/>
    </time>
</configuration>
