<routes><vType id="car"/><trip id="ego_1" depart="0" from="1068572560#6" to="380818889#0"/></routes>